/*--------------------------------*- C++ -*----------------------------------*\
| =========                 |                                                 |
| \\      /  F ield         | OpenFOAM: The Open Source CFD Toolbox           |
|  \\    /   O peration     | Version:  v2012                                 |
|   \\  /    A nd           | Website:  www.openfoam.com                      |
|    \\/     M anipulation  |                                                 |
\*---------------------------------------------------------------------------*/
FoamFile
{
    version     2.0;
    format      ascii;
    class       volScalarField;
    location    "0";
    object      p;
}
// * * * * * * * * * * * * * * * * * * * * * * * * * * * * * * * * * * * * * //

dimensions      [1 -1 -2 0 0 0 0];


internalField   uniform 1e+05; 


boundaryField
{
    asym1
    {
        type            wedge;
    }
    inlet
    {
        type            fixedValue;
        value           uniform 5.85e+06;
    }
    nozzle
    {
        type            zeroGradient;
    }
    outlet
    {
        type            waveTransmissive;
        field           p;
        psi             thermo:psi;
        gamma           1.3;
        fieldInf        1e+05;
        lInf            10;
        value           uniform 1e+05;
    }

    outlet_r
    {
        type            waveTransmissive;
        field           p;
        psi             thermo:psi;
        gamma           1.3;
        fieldInf        1e+05;
        lInf            1;
        value           uniform 1e+05;
    }
    asym2
    {
        type            wedge;
    }
}


// ************************************************************************* //
