/*--------------------------------*- C++ -*----------------------------------*\
| =========                 |                                                 |
| \\      /  F ield         | OpenFOAM: The Open Source CFD Toolbox           |
|  \\    /   O peration     | Version:  2.1.1                                 |
|   \\  /    A nd           | Web:      www.OpenFOAM.org                      |
|    \\/     M anipulation  |                                                 |
\*---------------------------------------------------------------------------*/
FoamFile
{
    version     2.0;
    format      ascii;
    class       dictionary;
    object      blockMeshDict;
}
// * * * * * * * * * * * * * * * * * * * * * * * * * * * * * * * * * * * * * //

convertToMeters 1;

vertices
(
    (0.0 0.0 0.0) // 0 
    (0.435 0.0 0.0) // 1 
    (0.5210364654526569 0.0 0.0) // 2 
    (0.6283598880020773 0.0 0.0) // 3 
    (0.7794333236487353 0.0 0.0) // 4 
    (0.7888302498565943 0.0 0.0) // 5 
    (1.765212691457829 0.0 0.0) // 6 
    (1.779 0.0 0.0) // 7 
    (8.4475 0.0 0.0) // 8 
    (0.0 0.21377512360574308 0.009324739925631492) // 9 
    (0.435 0.21377512360574308 0.009324739925631492) // 10 
    (0.5210364654526569 0.18680247656902213 0.008148209586268279) // 11 
    (0.6283598880020773 0.11209762219116565 0.00488962960508954) // 12 
    (0.7794333236487353 0.09232173779292184 0.004027017643030438) // 13 
    (0.7888302498565943 0.09572245399827528 0.004175354800511326) // 14 
    (1.765212691457829 0.3555318197629873 0.015508080166944565) // 15 
    (1.779 0.35794904417705814 0.015613518015010867) // 16 
    (1.779 1.0738471325311747 0.046840554045032616) // 17 
    (8.4475 1.0738471325311747 0.046840554045032616) // 18 
    (8.4475 0.35794904417705814 0.015613518015010867) // 19 
    (0.0 0.21397878399428916 -0.009333623467010457) // 20 
    (0.435 0.21397878399428916 -0.009333623467010457) // 21 
    (0.5210364654526569 0.18698044051692086 -0.008155972264648738) // 22 
    (0.6283598880020773 0.11220441593267061 -0.004894287882668438) // 23 
    (0.7794333236487353 0.09240969134276907 -0.0040308541229913805) // 24 
    (0.7888302498565943 0.09581364735999601 -0.004179332599081369) // 25 
    (1.765212691457829 0.35587052965276367 -0.01552285448483119) // 26 
    (1.779 0.3582900569206702 -0.015628392781970996) // 27 
    (1.779 1.0748701707620107 -0.046885178345913) // 28 
    (8.4475 1.0748701707620107 -0.046885178345913) // 29 
    (8.4475 0.3582900569206702 -0.015628392781970996) // 30 
);

blocks
(
    hex (0 20 9 0 1 21 10 1 ) (20 1 88) simpleGrading (1 1 1)
    hex (1 21 10 1 2 22 11 2 ) (20 1 18) simpleGrading (1 1 1)
    hex (2 22 11 2 3 23 12 3 ) (20 1 22) simpleGrading (1 1 1)
    hex (3 23 12 3 4 24 13 4 ) (20 1 31) simpleGrading (1 1 1)
    hex (4 24 13 4 5 25 14 5 ) (20 1 2) simpleGrading (1 1 1)
    hex (5 25 14 5 6 26 15 6 ) (20 1 196) simpleGrading (1 1 1)
    hex (6 26 15 6 7 27 16 7 ) (20 1 3) simpleGrading (1 1 1)
    hex (7 27 16 7 8 30 19 8 ) (20 1 800) simpleGrading (1 1 1)//
    hex (27 28 17 16 30 29 18 19 ) (30 1 800) simpleGrading (1 1 1)//
);

edges
(
     arc 10 11 (0.48010586992564097 0.20687221808854647 0.009023639415930578)
     arc 12 13 (0.723 0.08242771045077256 0.003595446231790003)
     arc 14 15 (1.2713966195508526 0.24700821746001758 0.010774347119809659)
     arc 21 22 (0.48010586992564097 0.20706930218142253 -0.009032236103321285)
     arc 23 24 (0.723 0.08250623810756544 -0.0035988715600705433)
     arc 25 26 (1.2713966195508526 0.24724353852400985 -0.01078461168045516)
);

boundary
(
    inlet
    {
        type patch;
        faces
        (
            (0 20 9 0 )
            
        );
    }
    asym1
    {
        type wedge;
        faces
        (
            (0 9 10 1)
            (1 10 11 2)
            (2 11 12 3)
            (3 12 13 4)
            (4 13 14 5)
            (5 14 15 6)
            (6 15 16 7)
            (7 16 19 8)//
            (16 17 18 19)//
        );
    }



    outlet
    {
        type patch;
        faces
        (
           //(7 27 16 7 ) 
            (8 30 19 8)//
            (30 29 18 19)//
            //(17 28 29 18) //
        );
    }

    outlet_r
    {
        type patch;
        faces
        (
           //(7 27 16 7 ) 
           // (8 30 19 8)//
            //(30 29 18 19)//
            (17 28 29 18) //
        );
    }



    asym2
    {
        type wedge;
        faces
        (
            (1 21 20 0)
            (2 22 21 1)
            (3 23 22 2)
            (4 24 23 3)
            (5 25 24 4)
            (6 26 25 5)
            (7 27 26 6)
            (8 30 27 7)//
            (30 29 28 27) //
        );
    }
    nozzle
    {
        type wall;
        faces
        (
            (9 20 21 10)
            (10 21 22 11)
            (11 22 23 12)
            (12 23 24 13)
            (13 24 25 14)
            (14 25 26 15)
            (15 26 27 16)
            (16 27 28 17) 
	    
        );
    }
);

mergePatchPairs
(
);

// ************************************************************************* //
